LAMMPS (30 Jul 2016)
variable seed equal 1928427217 #1st random number by Rafi
variable avg_length equal 500000

units lj # This simulation uses Lennard-Jones reduced units (see notes)
boundary f f f # this isn't necessary, but we have reflective walls, so this
               # will tell us if those fail for some reason

# create box that can be filled with Type-1 atoms
lattice fcc 0.75 # reduced density is 0.75
Lattice spacing in x,y,z = 1.74716 1.74716 1.74716
region simbox block 0 5 0 5 0 5
create_box 1 simbox
Created orthogonal box = (0 0 0) to (8.7358 8.7358 8.7358)

# How we calculate forces
pair_style lj/cut 2.5 # r_c = 2.5 sigma
pair_coeff 1 1 1.0 1.0 # specify sigma = 1 and epsilon = 1
mass 1 1 # mass, in LJ reduced units

# Do we want the Lennard-Jones potential shifted? Default: yes
#pair_modify shift no

# Fill simulation with type 1 atoms, on-lattice
create_atoms 1 box
Created 500 atoms
# give them random velocities consistent with kT/epsilon = 0.5
velocity all create 0.5 1928427217

# What thermodynamic information do we desire to collect?
thermo_style custom step temp press ke pe etotal
thermo 100 # print the above every 100 time steps

# set the time step; default is 0.005 tau
timestep 0.0005

# Apply reflective walls (to mimic the Monte Carlo simulation)
fix reflect all wall/reflect xlo EDGE xhi EDGE ylo EDGE yhi EDGE zlo EDGE zhi EDGE

# Run molecular dynamics in the isokinetic ensemble (constant
# kinetic energy) by rescaling the velocities every time step
# for 1000 time steps, to achieve a temperature consistent with
# kT/epsilon = 0.5
fix 2 all temp/rescale 1 0.5 0.5 0.0 1.0
fix 1 all nve # velocity Verlet time integration
run 1000
  1 neighbor list requests
  update every 1 steps, delay 10 steps, check yes
Step Temp Press KinEng PotEng TotEng
0          0.5   -4.2606863       0.7485   -4.6432288   -3.8947288
Averages over the last 6 of 11 rows, steps 500 to 1000:
Temp Press KinEng PotEng TotEng
0.5 -0.199649 0.7485 -5.04854 -4.30004
Loop time of 0.0694606 on 4 procs for 1000 steps with 500 atoms

unfix 2

# Compute the radial distribution function
compute RDF all rdf 50 # 50 bins between 0 and the cutoff distance
# output the average of the RDF over the last 50000 steps every 50000 steps
fix RDF all ave/time 1 1 500000 c_RDF[2*3] file RDF_lj.txt mode vector

run 500000
  2 neighbor list requests
  update every 1 steps, delay 10 steps, check yes
Step Temp Press KinEng PotEng TotEng
1000          0.5 0.0081672749       0.7485   -5.2372869   -4.4887869
Averages over the last 2501 of 5001 rows, steps 251000 to 501000:
Temp Press KinEng PotEng TotEng
0.473378 0.166763 0.708647 -5.21096 -4.50231
Loop time of 33.1164 on 4 procs for 500000 steps with 500 atoms
